/*--------------------------------*- C++ -*----------------------------------*\   
| =========                 |                                                 |    
| \\      /  F ield         | OpenFOAM: The Open Source CFD Toolbox           |  
|  \\    /   O peration     | Version:  v2206                                 |  
|   \\  /    A nd           | Website:  www.openfoam.com                      |  
|    \\/     M anipulation  |                                                 |  
\*---------------------------------------------------------------------------*/   
FoamFile                                                                           
{                                                                                  
    version     2.0;                                                               
    format      ascii;                                                             
    class       volVectorField;                                                    
    object      U;                                                                 
}                                                                                  
// * * * * * * * * * * * * * * * * * * * * * * * * * * * * * * * * * * * * * //    
                                                                                   
dimensions             [0 1 -1 0 0 0 0];                                           
                                                                                   
internalField          uniform (101.18252730208769 0.0 0.0); 
                                                                                   
boundaryField                                                                      
{                                                                                  
   inlet                                                                           
   {                                                                               
       type            flowRateInletVelocity;                                      
       massFlowRate    2370.7972091621605; 
       value           $internalField;                                             
   }                                                                               
                                                                                   
   outlet                                                                          
   {                                                                               
       type            zeroGradient;                                               
   }                                                                               
                                                                                   
   wall                                                                            
   {                                                                               
       type            noSlip;                                                     
   }                                                                               
                                                                                   
   "(top|bottom)"                                                                  
   {                                                                               
       type            slip;                                                       
   }                                                                               
                                                                                   
   #includeEtc "caseDicts/setConstraintTypes"                                      
}                                                                                  
                                                                                   
// ************************************************************************* //    
