/*--------------------------------*- C++ -*----------------------------------*\   
| =========                 |                                                 |    
| \\      /  F ield         | OpenFOAM: The Open Source CFD Toolbox           |  
|  \\    /   O peration     | Version:  v2112                                 |  
|   \\  /    A nd           | Website:  www.openfoam.com                      |  
|    \\/     M anipulation  |                                                 |  
\*---------------------------------------------------------------------------*/   
FoamFile                                                                           
{                                                                                  
    version     2.0;                                                               
    format      ascii;                                                             
    class       dictionary;                                                        
    object      blockMeshDict;                                                     
}                                                                                  
// * * * * * * * * * * * * * * * * * * * * * * * * * * * * * * * * * * * * * //    
                                                                                   
domain                                                                             
{                                                                                  
   xMin        -4; 
   xMax        4; 
   zMin        -2; 
   zMax        2; 
                                                                                   
   // Number of cells                                                              
   zCells      80; // aerofoil to far field 
   xUCells     30; // towards centre upstream 
   xMCells     30; // towards leading edge 
   xDCells     40; // downstream 
                                                                                   
   // Mesh grading                                                                 
   zGrading    40; // aerofoil to far field 
   xUGrading   5; // towards centre upstream 
   leadGrading 0.2; // towards leading edge 
   xDGrading   10; // downstream 
}                                                                                  
                                                                                   
aerofoil                                                                           
{                                                                                  
   xLead       0.0037556122933249947; 
   zLead       0.04201338842740315; 
   xTrail      0.988605814759156; 
   zTrail      -0.13023613325019778; 
   xUpper      0.31058513473948546; 
   zUpper      0.0692482722795963; 
   xLower      0.2927303884997209; 
   zLower      -0.04943031051524255; 
}                                                                                  
                                                                                   
geometry                                                                           
{                                                                                  
   // aerofoil = NACA2412 
   // AoA      = 10.0 deg 
                                                                                   
   cylinder                                                                        
   {                                                                               
       type    cylinder;                                                           
       point1  ($:aerofoil.xUpper -1e3 0);                                         
       point2  ($:aerofoil.xUpper  1e3 0);                                         
       radius  $:domain.zMax;                                                      
   }                                                                               
}                                                                                  
                                                                                   
vertices                                                                           
(                                                                                  
   project ($aerofoil.xLower   -0.1 $domain.zMin)      (cylinder)                  
           ($aerofoil.xTrail   -0.1 $domain.zMin)                                  
           ($domain.xMax       -0.1 $domain.zMin)                                  
                                                                                   
   project ($domain.xMin       -0.1 $aerofoil.zLead)   (cylinder)                  
           ($aerofoil.xLead    -0.1 $aerofoil.zLead)                               
           ($aerofoil.xTrail   -0.1 $aerofoil.zTrail)                              
           ($domain.xMax       -0.1 $aerofoil.zTrail)                              
                                                                                   
           ($aerofoil.xLower   -0.1 $aerofoil.zLower)                              
           ($aerofoil.xUpper   -0.1 $aerofoil.zUpper)                              
                                                                                   
           ($aerofoil.xUpper   -0.1 $domain.zMax)                                  
           ($aerofoil.xTrail   -0.1 $domain.zMax)                                  
           ($domain.xMax       -0.1 $domain.zMax)                                  
                                                                                   
   project ($aerofoil.xLower   0.1 $domain.zMin)       (cylinder)                  
           ($aerofoil.xTrail   0.1 $domain.zMin)                                   
           ($domain.xMax       0.1 $domain.zMin)                                   
                                                                                   
   project ($domain.xMin       0.1 $aerofoil.zLead)    (cylinder)                  
           ($aerofoil.xLead    0.1 $aerofoil.zLead)                                
           ($aerofoil.xTrail   0.1 $aerofoil.zTrail)                               
           ($domain.xMax       0.1 $aerofoil.zTrail)                               
                                                                                   
           ($aerofoil.xLower   0.1 $aerofoil.zLower)                               
           ($aerofoil.xUpper   0.1 $aerofoil.zUpper)                               
                                                                                   
           ($aerofoil.xUpper   0.1 $domain.zMax)                                   
           ($aerofoil.xTrail   0.1 $domain.zMax)                                   
           ($domain.xMax       0.1 $domain.zMax)                                   
);                                                                                 
                                                                                   
blocks                                                                             
(                                                                                  
   hex (7 4 16 19 0 3 15 12)                                                       
   ($:domain.xUCells 1 $:domain.zCells)                                            
   edgeGrading                                                                     
   (                                                                               
       $:domain.leadGrading $:domain.leadGrading $:domain.xUGrading $:domain.xUGrading 
       1 1 1 1                                                                     
       $:domain.zGrading $:domain.zGrading $:domain.zGrading $:domain.zGrading     
   )                                                                               
                                                                                   
   hex (5 7 19 17 1 0 12 13)                                                       
   ($:domain.xMCells 1 $:domain.zCells)                                            
   simpleGrading (1 1 $:domain.zGrading)                                           
                                                                                   
   hex (17 18 6 5 13 14 2 1)                                                       
   ($:domain.xDCells 1 $:domain.zCells)                                            
   simpleGrading ($:domain.xDGrading 1 $:domain.zGrading)                          
                                                                                   
   hex (20 16 4 8 21 15 3 9)                                                       
   ($:domain.xUCells 1 $:domain.zCells)                                            
   edgeGrading                                                                     
   (                                                                               
       $:domain.leadGrading $:domain.leadGrading $:domain.xUGrading $:domain.xUGrading 
       1 1 1 1                                                                     
       $:domain.zGrading $:domain.zGrading $:domain.zGrading $:domain.zGrading     
   )                                                                               
                                                                                   
   hex (17 20 8 5 22 21 9 10)                                                      
   ($:domain.xMCells 1 $:domain.zCells)                                            
   simpleGrading (1 1 $:domain.zGrading)                                           
                                                                                   
   hex (5 6 18 17 10 11 23 22)                                                     
   ($:domain.xDCells 1 $:domain.zCells)                                            
   simpleGrading ($:domain.xDGrading 1 $:domain.zGrading)                          
);                                                                                 
                                                                                   
edges                                                                              
(                                                                                  
   spline 4 7                                                                      
   (                                                                               
        (0.003798061746947995 -0.1 0.04341204441673258)
        (0.0037612252438628813 -0.1 0.04271270683194695)
        (0.0037556122933249947 -0.1 0.04201338842740315)
        (0.003781204819166134 -0.1 0.04131410199112863)
        (0.0038379828871678012 -0.1 0.04061486080494645)
        (0.003925924707973344 -0.1 0.039915678643180665)
        (0.004045006640202631 -0.1 0.03921656977074033)
        (0.0041952031937676215 -0.1 0.038517548940578614)
        (0.0043764870333879435 -0.1 0.03781863139053465)
        (0.004588828982305643 -0.1 0.03711983283955528)
        (0.00483219802619736 -0.1 0.036421169483305205)
        (0.0051065613172823765 -0.1 0.035722657989166476)
        (0.005411884178625204 -0.1 0.03502431549063284)
        (0.005748130108630484 -0.1 0.03432615958110445)
        (0.006115260785727938 -0.1 0.03362820830708889)
        (0.006513236073246054 -0.1 0.03293048016081354)
        (0.006942014024470755 -0.1 0.03223299407225779)
        (0.007401550887887881 -0.1 0.031535769400611646)
        (0.007891801112605762 -0.1 0.03083882592516847)
        (0.008412717353955795 -0.1 0.030142183835660807)
        (0.008964250479266994 -0.1 0.029445863722048667)
        (0.009546349573812785 -0.1 0.02874988656376847)
        (0.01015896194692556 -0.1 0.028054273718454162)
        (0.010802033138276018 -0.1 0.027359046910139864)
        (0.011475506924313816 -0.1 0.02666422821695607)
        (0.01217932532486568 -0.1 0.02596984005832994)
        (0.012913428609887284 -0.1 0.025275905181702463)
        (0.013677755306364864 -0.1 0.024582446648774053)
        (0.014472242205362557 -0.1 0.023889487821292476)
        (0.015296824369211592 -0.1 0.023197052346395342)
        (0.01615143513883649 -0.1 0.022505164141521764)
        (0.017036006141214616 -0.1 0.02181384737890661)
        (0.017950467296964173 -0.1 0.021123126469672442)
        (0.01889474682805617 -0.1 0.020433026047533723)
        (0.019868771265646595 -0.1 0.01974357095212833)
        (0.020872465458022377 -0.1 0.019054786211993035)
        (0.021905752578658205 -0.1 0.01836669702719743)
        (0.022968554134378955 -0.1 0.017679328751653893)
        (0.024060789973621627 -0.1 0.01699270687511971)
        (0.025182378294794 -0.1 0.01630685700490799)
        (0.026333235654723675 -0.1 0.015621804847325185)
        (0.027513276977192552 -0.1 0.01493757618885224)
        (0.028722415561552916 -0.1 0.014254196877087316)
        (0.02996056309141834 -0.1 0.013571692801468103)
        (0.03122762964342679 -0.1 0.012890089873791411)
        (0.032523523696068535 -0.1 0.012209414008549305)
        (0.033848152138575116 -0.1 0.011529691103099666)
        (0.035201420279864615 -0.1 0.01085094701769011)
        (0.03658323185753792 -0.1 0.010173207555354238)
        (0.03799348904692004 -0.1 0.00949649844169942)
        (0.039432092470143704 -0.1 0.008820845304604915)
        (0.040898941205268186 -0.1 0.008146273653849834)
        (0.0423939327954303 -0.1 0.007472808860690322)
        (0.04391696325802133 -0.1 0.006800476137405382)
        (0.04546792709388611 -0.1 0.006129300516830565)
        (0.04704671729653931 -0.1 0.005459306831899567)
        (0.04865322536139452 -0.1 0.0047905196952125265)
        (0.05028734129500084 -0.1 0.004122963478651456)
        (0.05194895362428387 -0.1 0.0034566622930614285)
        (0.05363794940578537 -0.1 0.0027916399680176854)
        (0.05535421423489867 -0.1 0.002127920031697497)
        (0.05709763225509423 -0.1 0.0014655256908769135)
        (0.05886808616713288 -0.1 0.0008044798110705548)
        (0.06066545723826139 -0.1 0.00014480489683477843)
        (0.062489625311387575 -0.1 -0.0005134769277475373)
        (0.06434046881423047 -0.1 -0.0011703439383814532)
        (0.06621786476844274 -0.1 -0.0018257748296549511)
        (0.06812168879870148 -0.1 -0.002479748733895816)
        (0.07005181514176392 -0.1 -0.0031322452397721003)
        (0.07200811665548512 -0.1 -0.0037832444106181)
        (0.07399046482779514 -0.1 -0.004432726802467767)
        (0.07599872978563155 -0.1 -0.005080673481777841)
        (0.07803278030382577 -0.1 -0.005727066042823591)
        (0.0800924838139403 -0.1 -0.006371886624749395)
        (0.08217770641305411 -0.1 -0.007015117928257989)
        (0.08428831287249408 -0.1 -0.007656743231921198)
        (0.08642416664651101 -0.1 -0.008296746408096196)
        (0.08858512988089767 -0.1 -0.008935111938431578)
        (0.09077106342154681 -0.1 -0.009571824928947065)
        (0.09298182682294859 -0.1 -0.010206871124672189)
        (0.09521727835662544 -0.1 -0.010840236923828992)
        (0.09747727501950296 -0.1 -0.011471909391543932)
        (0.09976167254221607 -0.1 -0.012101876273075556)
        (0.10207032539734984 -0.1 -0.012730126006543857)
        (0.10440308680761326 -0.1 -0.013356647735148195)
        (0.10675980875394703 -0.1 -0.013981431318861148)
        (0.1091403419835636 -0.1 -0.01460446734558598)
        (0.11154453601791997 -0.1 -0.015225747141765632)
        (0.11397223916062305 -0.1 -0.01584526278243221)
        (0.11642329850526814 -0.1 -0.01646300710068579)
        (0.1188975599432108 -0.1 -0.017078973696592316)
        (0.12139486817127154 -0.1 -0.017693156945490687)
        (0.12391506669937657 -0.1 -0.01830555200569957)
        (0.12645799785813247 -0.1 -0.01891615482561501)
        (0.1290235028063384 -0.1 -0.019524962150190926)
        (0.13161142153843544 -0.1 -0.020131971526794072)
        (0.13422159289189506 -0.1 -0.020737181310426633)
        (0.13685385455454877 -0.1 -0.021340590668309865)
        (0.13950804307185954 -0.1 -0.021942199583822083)
        (0.14218399385413794 -0.1 -0.02254200885978609)
        (0.14488154118370417 -0.1 -0.02314002012110051)
        (0.14760051822199918 -0.1 -0.02373623581671093)
        (0.15034075701664587 -0.1 -0.024330659220916734)
        (0.1531020885084644 -0.1 -0.02492329443401058)
        (0.15588434253844266 -0.1 -0.025514146382247603)
        (0.15868734785466576 -0.1 -0.026103220817142444)
        (0.16151093211920722 -0.1 -0.026690524314092395)
        (0.16435492191498396 -0.1 -0.02727606427032573)
        (0.16721914275258007 -0.1 -0.027859848902175195)
        (0.17010341907704 -0.1 -0.028441887241676306)
        (0.17300757427463737 -0.1 -0.029022189132491966)
        (0.17593143067962042 -0.1 -0.02960076522516413)
        (0.17887480958093896 -0.1 -0.03017762697169529)
        (0.18183753122895613 -0.1 -0.030752786619461542)
        (0.1848194148421487 -0.1 -0.031326257204461166)
        (0.18782027861379968 -0.1 -0.03189805254390202)
        (0.1908399397186867 -0.1 -0.032468187228132134)
        (0.19387821431977129 -0.1 -0.033036676611918725)
        (0.19693491757489118 -0.1 -0.03360353680508048)
        (0.2000098636434621 -0.1 -0.03416878466248018)
        (0.20310286569319003 -0.1 -0.03473243777338287)
        (0.20621373590680153 -0.1 -0.03529451445018803)
        (0.20934228548879358 -0.1 -0.035855033716542875)
        (0.21248832467220832 -0.1 -0.03641401529484457)
        (0.21565166272543676 -0.1 -0.036971479593141204)
        (0.21883210795905586 -0.1 -0.037527447691439855)
        (0.22202946773270255 -0.1 -0.03808194132743186)
        (0.2252435484619896 -0.1 -0.0386349828816459)
        (0.22847415562546738 -0.1 -0.039186595362039084)
        (0.23172109377163563 -0.1 -0.039736802388037985)
        (0.23498416652600948 -0.1 -0.040285628174040855)
        (0.2382631765982434 -0.1 -0.040833097512393474)
        (0.24155792578931862 -0.1 -0.0413792357558514)
        (0.24486821499879663 -0.1 -0.041924068799541504)
        (0.24819384423214305 -0.1 -0.042467623062436524)
        (0.25153461260812626 -0.1 -0.043009925468356455)
        (0.25489031836629555 -0.1 -0.04355100342651128)
        (0.25826075887454036 -0.1 -0.04409088481159989)
        (0.2616457306367363 -0.1 -0.04462959794347961)
        (0.26504502930048157 -0.1 -0.04516717156642315)
        (0.268458449664926 -0.1 -0.04570363482797743)
        (0.271885785688698 -0.1 -0.04623901725744141)
        (0.2753268304979314 -0.1 -0.0467733487439789)
        (0.27878137639439704 -0.1 -0.047306659514383474)
        (0.28224921486374016 -0.1 -0.04783898011051229)
        (0.28573013658382945 -0.1 -0.04837034136640653)
        (0.28922393143321784 -0.1 -0.048900774385115385)
   )                                                                               
                                                                                   
   spline 7 5                                                                      
   (                                                                               
        (0.2927303884997209 -0.1 -0.04943031051524255)
        (0.29624929608911316 -0.1 -0.049958981327232165)
        (0.29978044173394564 -0.1 -0.050486818589413146)
        (0.30332361220248855 -0.1 -0.0510138542438202)
        (0.30687859350779934 -0.1 -0.05154012038181029)
        (0.3104451709169192 -0.1 -0.052065649219492985)
        (0.31402312896020107 -0.1 -0.052590473072994054)
        (0.3176122514407693 -0.1 -0.053114624333571545)
        (0.32121232144411427 -0.1 -0.05363813544260238)
        (0.3248231213478219 -0.1 -0.05416103886646041)
        (0.32844443283144176 -0.1 -0.05468336707130364)
        (0.3320760368864931 -0.1 -0.055205152497791385)
        (0.3357177138266109 -0.1 -0.05572642753574966)
        (0.3393692432978321 -0.1 -0.05624722449880478)
        (0.3430304042890243 -0.1 -0.056767575599004805)
        (0.3467009751424563 -0.1 -0.057287512921447514)
        (0.3503807335645104 -0.1 -0.05780706839893503)
        (0.35406945663653966 -0.1 -0.05832627378667414)
        (0.35776692082586614 -0.1 -0.058845160637041385)
        (0.3614729019969237 -0.1 -0.05936376027443225)
        (0.36518717542254286 -0.1 -0.05988210377021366)
        (0.3689095157953787 -0.1 -0.06040022191779852)
        (0.3726396972394807 -0.1 -0.060918145207860985)
        (0.3763774933220031 -0.1 -0.06143590380371169)
        (0.38012267706505737 -0.1 -0.06195352751685069)
        (0.383875020957702 -0.1 -0.06247104578271683)
        (0.38763429696807244 -0.1 -0.06298848763665171)
        (0.3914025291155018 -0.1 -0.06350627331327349)
        (0.39520572299180756 -0.1 -0.06402788749395455)
        (0.39901540060127005 -0.1 -0.06454748672658198)
        (0.4028313237048391 -0.1 -0.06506508726404264)
        (0.4066532536265669 -0.1 -0.0655807053224491)
        (0.4104809512693838 -0.1 -0.06609435706240345)
        (0.4143141771309281 -0.1 -0.06660605857048138)
        (0.4181526913194282 -0.1 -0.06711582584095152)
        (0.42199625356963255 -0.1 -0.0676236747577442)
        (0.42584462325878425 -0.1 -0.06812962107668352)
        (0.42969755942263854 -0.1 -0.0686336804079962)
        (0.43355482077151786 -0.1 -0.06913586819911105)
        (0.437416165706405 -0.1 -0.06963619971776148)
        (0.4412813523350664 -0.1 -0.07013469003540398)
        (0.44515013848820606 -0.1 -0.0706313540109644)
        (0.4490222817356463 -0.1 -0.07112620627492457)
        (0.4528975394025303 -0.1 -0.07161926121376014)
        (0.4567756685855457 -0.1 -0.07211053295474079)
        (0.4606564261691639 -0.1 -0.07260003535110383)
        (0.46453956884189374 -0.1 -0.07308778196761109)
        (0.46842485311254556 -0.1 -0.07357378606649931)
        (0.4723120353265011 -0.1 -0.07405806059383284)
        (0.47620087168198966 -0.1 -0.07454061816626847)
        (0.48009111824636314 -0.1 -0.07502147105824036)
        (0.4839825309723701 -0.1 -0.07550063118957312)
        (0.4878748657144236 -0.1 -0.07597811011353128)
        (0.4917678782448621 -0.1 -0.07645391900531179)
        (0.4956613242701975 -0.1 -0.0769280686509864)
        (0.4995549594473491 -0.1 -0.0774005694369006)
        (0.5034485393998617 -0.1 -0.07787143133953439)
        (0.5073418197341009 -0.1 -0.07834066391583053)
        (0.5112345560554277 -0.1 -0.07880827629399527)
        (0.5151265039843453 -0.1 -0.07927427716477557)
        (0.5190174191726189 -0.1 -0.07973867477321711)
        (0.5229070573193623 -0.1 -0.08020147691090651)
        (0.5267951741870918 -0.1 -0.08066269090870029)
        (0.5306815256177417 -0.1 -0.0811223236299439)
        (0.5345658675486435 -0.1 -0.08158038146418202)
        (0.5384479560284596 -0.1 -0.08203687032136209)
        (0.542327547233075 -0.1 -0.08249179562653217)
        (0.5462043974814428 -0.1 -0.08294516231503374)
        (0.5500782632513799 -0.1 -0.08339697482818925)
        (0.5539489011953111 -0.1 -0.08384723710948458)
        (0.5578160681559617 -0.1 -0.08429595260124503)
        (0.5616795211819938 -0.1 -0.08474312424180432)
        (0.5655390175435857 -0.1 -0.08518875446316415)
        (0.5693943147479514 -0.1 -0.08563284518914262)
        (0.5732451705548018 -0.1 -0.08607539783400883)
        (0.5770913429917394 -0.1 -0.08651641330160015)
        (0.5809325903695918 -0.1 -0.08695589198491967)
        (0.5847686712976781 -0.1 -0.08739383376620846)
        (0.588599344699009 -0.1 -0.08783023801748994)
        (0.5924243698254167 -0.1 -0.08826510360158003)
        (0.5962435062726159 -0.1 -0.08869842887355911)
        (0.6000565139951938 -0.1 -0.0891302116826994)
        (0.6038631533215282 -0.1 -0.08956044937484237)
        (0.6076631849686308 -0.1 -0.0899891387952193)
        (0.6114563700569178 -0.1 -0.09041627629170856)
        (0.6152424701249058 -0.1 -0.09084185771852271)
        (0.6190212471438317 -0.1 -0.09126587844031717)
        (0.6227924635321941 -0.1 -0.09168833333671365)
        (0.6265558821702232 -0.1 -0.09210921680722933)
        (0.6303112664142674 -0.1 -0.0925285227766039)
        (0.6340583801111074 -0.1 -0.09294624470051516)
        (0.6377969876121886 -0.1 -0.09336237557167464)
        (0.6415268537877784 -0.1 -0.09377690792629324)
        (0.6452477440410445 -0.1 -0.0941898338509076)
        (0.6489594243220542 -0.1 -0.09460114498955693)
        (0.6526616611416975 -0.1 -0.09501083255130037)
        (0.6563542215855316 -0.1 -0.0954188873180644)
        (0.6600368733275481 -0.1 -0.09582529965280896)
        (0.663709384643864 -0.1 -0.09623005950800226)
        (0.6673715244263352 -0.1 -0.09663315643439241)
        (0.6710230621960946 -0.1 -0.0970345795900649)
        (0.6746637681170157 -0.1 -0.09743431774977411)
        (0.6782934130090986 -0.1 -0.09783235931453718)
        (0.6819117683617875 -0.1 -0.09822869232147884)
        (0.6855186063472096 -0.1 -0.09862330445391401)
        (0.6891136998333465 -0.1 -0.0990161830516576)
        (0.6926968223971317 -0.1 -0.09940731512154757)
        (0.6962677483374798 -0.1 -0.09979668734817006)
        (0.699826252688247 -0.1 -0.10018428610477344)
        (0.7033721112311226 -0.1 -0.1005700974643591)
        (0.7069051005084566 -0.1 -0.10095410721093581)
        (0.7104249978360202 -0.1 -0.10133630085092564)
        (0.7139315813157046 -0.1 -0.10171666362470795)
        (0.7174246298481557 -0.1 -0.10209518051828928)
        (0.7209039231453505 -0.1 -0.10247183627508577)
        (0.7243692417431125 -0.1 -0.10284661540780611)
        (0.727820367013571 -0.1 -0.10321950221042123)
        (0.7312570811775634 -0.1 -0.10359048077020874)
        (0.7346791673169839 -0.1 -0.10395953497985932)
        (0.7380864093870794 -0.1 -0.10432664854963171)
        (0.7414785922286949 -0.1 -0.10469180501954442)
        (0.7448555015804683 -0.1 -0.10505498777159163)
        (0.7482169240909795 -0.1 -0.10541618004197008)
        (0.7515626473308545 -0.1 -0.10577536493330547)
        (0.7548924598048212 -0.1 -0.10613252542686548)
        (0.7582061509637292 -0.1 -0.10648764439474778)
        (0.7615035112165244 -0.1 -0.10684070461203049)
        (0.764784331942187 -0.1 -0.1071916887688742)
        (0.7680484055016337 -0.1 -0.1075405794825625)
        (0.771295525249582 -0.1 -0.10788735930947088)
        (0.7745254855463847 -0.1 -0.1082320107569519)
        (0.7777380817698303 -0.1 -0.10857451629512567)
        (0.7809331103269148 -0.1 -0.10891485836856461)
        (0.7841103686655855 -0.1 -0.10925301940786242)
        (0.7872696552864578 -0.1 -0.10958898184107527)
        (0.7904107697545075 -0.1 -0.10992272810502708)
        (0.793533512710741 -0.1 -0.11025424065646704)
        (0.7966376858838428 -0.1 -0.11058350198307015)
        (0.799723092101803 -0.1 -0.11091049461427202)
        (0.8027895353035274 -0.1 -0.11123520113192753)
        (0.8058368205504293 -0.1 -0.11155760418078511)
        (0.808864754038007 -0.1 -0.11187768647876807)
        (0.8118731431074061 -0.1 -0.1121954308270537)
        (0.8148617962569684 -0.1 -0.11251082011994307)
        (0.817830523153771 -0.1 -0.11282383735451337)
        (0.8207791346451522 -0.1 -0.11313446564004492)
        (0.82370744277023 -0.1 -0.11344268820721633)
        (0.8266152607714109 -0.1 -0.11374848841706045)
        (0.8295024031058915 -0.1 -0.11405184976967483)
        (0.8323686854571534 -0.1 -0.1143527559126807)
        (0.8352139247464522 -0.1 -0.11465119064942438)
        (0.8380379391443016 -0.1 -0.11494713794691516)
        (0.8408405480819521 -0.1 -0.11524058194349569)
        (0.8436215722628664 -0.1 -0.115531506956239)
        (0.8463808336741915 -0.1 -0.11581989748806802)
        (0.8491181555982257 -0.1 -0.11610573823459362)
        (0.8518333626238854 -0.1 -0.11638901409066742)
        (0.8545262806581663 -0.1 -0.11666971015664557)
        (0.8571967369376043 -0.1 -0.11694781174436125)
        (0.8598445600397313 -0.1 -0.11722330438280226)
        (0.8624695798945302 -0.1 -0.11749617382349226)
        (0.8650716277958848 -0.1 -0.11776640604557305)
        (0.8676505364130273 -0.1 -0.11803398726058661)
        (0.8702061398019824 -0.1 -0.1182989039169557)
        (0.8727382734170042 -0.1 -0.11856114270416188)
        (0.8752467741220123 -0.1 -0.11882069055662106)
        (0.8777314802020171 -0.1 -0.119077534657255)
        (0.8801922313745422 -0.1 -0.11933166244076118)
        (0.8826288688010365 -0.1 -0.11958306159657915)
        (0.8850412350982786 -0.1 -0.119831720071556)
        (0.8874291743497714 -0.1 -0.12007762607231157)
        (0.8897925321171236 -0.1 -0.1203207680673046)
        (0.8921311554514206 -0.1 -0.12056113478860277)
        (0.8944448929045793 -0.1 -0.12079871523335739)
        (0.8967335945406882 -0.1 -0.12103349866498675)
        (0.8989971119473293 -0.1 -0.12126547461407017)
        (0.9012352982468795 -0.1 -0.12149463287895604)
        (0.903448008107793 -0.1 -0.12172096352608804)
        (0.9056350977558569 -0.1 -0.12194445689005207)
        (0.9077964249854252 -0.1 -0.12216510357334953)
        (0.9099318491706206 -0.1 -0.12238289444590013)
        (0.9120412312765088 -0.1 -0.12259782064427979)
        (0.9141244338702398 -0.1 -0.12280987357069806)
        (0.9161813211321536 -0.1 -0.12301904489172058)
        (0.9182117588668472 -0.1 -0.12322532653674202)
        (0.9202156145142024 -0.1 -0.12342871069621549)
        (0.9221927571603706 -0.1 -0.123629189819644)
        (0.924143057548709 -0.1 -0.12382675661334075)
        (0.9260663880906697 -0.1 -0.12402140403796438)
        (0.9279626228766363 -0.1 -0.12421312530583589)
        (0.9298316376867041 -0.1 -0.12440191387804467)
        (0.931673310001402 -0.1 -0.12458776346134989)
        (0.9334875190123532 -0.1 -0.12477066800488579)
        (0.93527414563287 -0.1 -0.12495062169667676)
        (0.9370330725084806 -0.1 -0.1251276189599717)
        (0.9387641840273823 -0.1 -0.12530165444940408)
        (0.9404673663308213 -0.1 -0.12547272304698634)