/*--------------------------------*- C++ -*----------------------------------*\   
| =========                 |                                                 |    
| \\      /  F ield         | OpenFOAM: The Open Source CFD Toolbox           |  
|  \\    /   O peration     | Version:  v2112                                 |  
|   \\  /    A nd           | Website:  www.openfoam.com                      |  
|    \\/     M anipulation  |                                                 |  
\*---------------------------------------------------------------------------*/   
FoamFile                                                                           
{                                                                                  
    version     2.0;                                                               
    format      ascii;                                                             
    class       dictionary;                                                        
    object      blockMeshDict;                                                     
}                                                                                  
// * * * * * * * * * * * * * * * * * * * * * * * * * * * * * * * * * * * * * //    
                                                                                   
domain                                                                             
{                                                                                  
   xMin        -4; 
   xMax        4; 
   zMin        -2; 
   zMax        2; 
                                                                                   
   // Number of cells                                                              
   zCells      80; // aerofoil to far field 
   xUCells     30; // towards centre upstream 
   xMCells     30; // towards leading edge 
   xDCells     40; // downstream 
                                                                                   
   // Mesh grading                                                                 
   zGrading    40; // aerofoil to far field 
   xUGrading   5; // towards centre upstream 
   leadGrading 0.2; // towards leading edge 
   xDGrading   10; // downstream 
}                                                                                  
                                                                                   
aerofoil                                                                           
{                                                                                  
   xLead       0.003769953367667167; 
   zLead       0.04282906892656824; 
   xTrail      0.988605814759156; 
   zTrail      -0.13023613325019776; 
   xUpper      0.30909723921950505; 
   zUpper      0.059358390380026396; 
   xLower      0.29421828401970124; 
   zLower      -0.039540428615672654; 
}                                                                                  
                                                                                   
geometry                                                                           
{                                                                                  
   // aerofoil = NACA2410 
   // AoA      = 10.0 deg 
                                                                                   
   cylinder                                                                        
   {                                                                               
       type    cylinder;                                                           
       point1  ($:aerofoil.xUpper -1e3 0);                                         
       point2  ($:aerofoil.xUpper  1e3 0);                                         
       radius  $:domain.zMax;                                                      
   }                                                                               
}                                                                                  
                                                                                   
vertices                                                                           
(                                                                                  
   project ($aerofoil.xLower   -0.1 $domain.zMin)      (cylinder)                  
           ($aerofoil.xTrail   -0.1 $domain.zMin)                                  
           ($domain.xMax       -0.1 $domain.zMin)                                  
                                                                                   
   project ($domain.xMin       -0.1 $aerofoil.zLead)   (cylinder)                  
           ($aerofoil.xLead    -0.1 $aerofoil.zLead)                               
           ($aerofoil.xTrail   -0.1 $aerofoil.zTrail)                              
           ($domain.xMax       -0.1 $aerofoil.zTrail)                              
                                                                                   
           ($aerofoil.xLower   -0.1 $aerofoil.zLower)                              
           ($aerofoil.xUpper   -0.1 $aerofoil.zUpper)                              
                                                                                   
           ($aerofoil.xUpper   -0.1 $domain.zMax)                                  
           ($aerofoil.xTrail   -0.1 $domain.zMax)                                  
           ($domain.xMax       -0.1 $domain.zMax)                                  
                                                                                   
   project ($aerofoil.xLower   0.1 $domain.zMin)       (cylinder)                  
           ($aerofoil.xTrail   0.1 $domain.zMin)                                   
           ($domain.xMax       0.1 $domain.zMin)                                   
                                                                                   
   project ($domain.xMin       0.1 $aerofoil.zLead)    (cylinder)                  
           ($aerofoil.xLead    0.1 $aerofoil.zLead)                                
           ($aerofoil.xTrail   0.1 $aerofoil.zTrail)                               
           ($domain.xMax       0.1 $aerofoil.zTrail)                               
                                                                                   
           ($aerofoil.xLower   0.1 $aerofoil.zLower)                               
           ($aerofoil.xUpper   0.1 $aerofoil.zUpper)                               
                                                                                   
           ($aerofoil.xUpper   0.1 $domain.zMax)                                   
           ($aerofoil.xTrail   0.1 $domain.zMax)                                   
           ($domain.xMax       0.1 $domain.zMax)                                   
);                                                                                 
                                                                                   
blocks                                                                             
(                                                                                  
   hex (7 4 16 19 0 3 15 12)                                                       
   ($:domain.xUCells 1 $:domain.zCells)                                            
   edgeGrading                                                                     
   (                                                                               
       $:domain.leadGrading $:domain.leadGrading $:domain.xUGrading $:domain.xUGrading 
       1 1 1 1                                                                     
       $:domain.zGrading $:domain.zGrading $:domain.zGrading $:domain.zGrading     
   )                                                                               
                                                                                   
   hex (5 7 19 17 1 0 12 13)                                                       
   ($:domain.xMCells 1 $:domain.zCells)                                            
   simpleGrading (1 1 $:domain.zGrading)                                           
                                                                                   
   hex (17 18 6 5 13 14 2 1)                                                       
   ($:domain.xDCells 1 $:domain.zCells)                                            
   simpleGrading ($:domain.xDGrading 1 $:domain.zGrading)                          
                                                                                   
   hex (20 16 4 8 21 15 3 9)                                                       
   ($:domain.xUCells 1 $:domain.zCells)                                            
   edgeGrading                                                                     
   (                                                                               
       $:domain.leadGrading $:domain.leadGrading $:domain.xUGrading $:domain.xUGrading 
       1 1 1 1                                                                     
       $:domain.zGrading $:domain.zGrading $:domain.zGrading $:domain.zGrading     
   )                                                                               
                                                                                   
   hex (17 20 8 5 22 21 9 10)                                                      
   ($:domain.xMCells 1 $:domain.zCells)                                            
   simpleGrading (1 1 $:domain.zGrading)                                           
                                                                                   
   hex (5 6 18 17 10 11 23 22)                                                     
   ($:domain.xDCells 1 $:domain.zCells)                                            
   simpleGrading ($:domain.xDGrading 1 $:domain.zGrading)                          
);                                                                                 
                                                                                   
edges                                                                              
(                                                                                  
   spline 4 7                                                                      
   (                                                                               
        (0.003798061746947995 -0.1 0.04341204441673258)
        (0.003769953367667167 -0.1 0.04282906892656824)
        (0.0037730418578433844 -0.1 0.04224572103381985)
        (0.0038073116412789543 -0.1 0.0416620112538958)
        (0.0038727452516285343 -0.1 0.04107795041957195)
        (0.003969323334892139 -0.1 0.040493549680000705)
        (0.004097024652102654 -0.1 0.03990882049923742)
        (0.00425582608220762 -0.1 0.03932377465428106)
        (0.004445702625143627 -0.1 0.038738424232635585)
        (0.004666627405103402 -0.1 0.03815278162938957)
        (0.0049185716739931495 -0.1 0.03756685954382113)
        (0.005201504815079971 -0.1 0.03698067097552878)
        (0.005515394346827268 -0.1 0.03639422922009278)
        (0.0058602059269166895 -0.1 0.03580754786427157)
        (0.006235903356454964 -0.1 0.03522064078073797)
        (0.0066424485843633585 -0.1 0.03463352212235936)
        (0.007079801711948719 -0.1 0.034046206316028796)
        (0.007547920997652086 -0.1 0.033458708056052326)
        (0.008046762861975032 -0.1 0.03287104229709888)
        (0.008576281892579363 -0.1 0.03228322424672002)
        (0.009136430849557814 -0.1 0.031695269357447244)
        (0.00972716067087473 -0.1 0.031107193318473413)
        (0.010348420477971632 -0.1 0.03051901204692794)
        (0.011000157581536607 -0.1 0.029930741678753016)
        (0.011682317487433203 -0.1 0.029342398559191112)
        (0.01239484390278675 -0.1 0.028753999232891972)
        (0.01313767874222388 -0.1 0.028165560433649754)
        (0.013910762134263038 -0.1 0.027577099073779653)
        (0.01471403242785116 -0.1 0.026988632233145474)
        (0.015547426199044506 -0.1 0.02640017714784786)
        (0.016410878257828526 -0.1 0.02581175119858547)
        (0.017304321655074617 -0.1 0.02522337189869965)
        (0.018227687689628486 -0.1 0.024635056881915276)
        (0.019180905915527457 -0.1 0.024046823889789314)
        (0.020163904149342188 -0.1 0.023458690758879686)
        (0.02117660847763911 -0.1 0.02287067540764773)
        (0.022218943264559143 -0.1 0.022282795823106303)
        (0.023290831159509612 -0.1 0.0216950700472276)
        (0.02439219310496335 -0.1 0.02110751616312414)
        (0.0255229483443635 -0.1 0.02052015228101611)
        (0.02668301443012719 -0.1 0.01993299652399992)
        (0.027872307231745636 -0.1 0.019346067013631545)
        (0.029090740943975596 -0.1 0.01875938185533943)
        (0.03033822809511788 -0.1 0.018172959123681623)
        (0.03161467955537964 -0.1 0.017586816847461398)
        (0.0329200045453146 -0.1 0.017000972994717166)
        (0.03425411064433817 -0.1 0.01641544545760119)
        (0.03561690379931254 -0.1 0.01583025203716244)
        (0.03700828833319822 -0.1 0.015245410428049121)
        (0.038428166953766524 -0.1 0.014660938203146345)
        (0.03987644076237004 -0.1 0.01407685279816431)
        (0.04135300926276611 -0.1 0.01349317149619288)
        (0.04285777036998997 -0.1 0.012909911412238136)
        (0.04439062041927175 -0.1 0.012327089477756768)
        (0.045951454174995826 -0.1 0.011744722425203979)
        (0.04754016483969595 -0.1 0.011162826772610965)
        (0.049156644063083926 -0.1 0.010581418808207368)
        (0.05080078195110707 -0.1 0.010000514575105195)
        (0.05247246707503095 -0.1 0.009420129856059365)
        (0.05417158648054335 -0.1 0.008840280158320994)
        (0.05589802569687666 -0.1 0.008260980698598968)
        (0.05765166874594321 -0.1 0.007682246388145898)
        (0.05943239815148238 -0.1 0.0071040918179831394)
        (0.06124009494821431 -0.1 0.0065265312442814374)
        (0.06307463869099711 -0.1 0.0059495785739116895)
        (0.06493590746398561 -0.1 0.0053732473501816105)
        (0.06682377788978672 -0.1 0.004797550738773099)
        (0.06873812513860952 -0.1 0.004222501513895496)
        (0.07067882293740685 -0.1 0.003648112044669402)
        (0.07264574357900566 -0.1 0.0030743942817557067)
        (0.07463875793122335 -0.1 0.0025013597442441887)
        (0.07665773544596755 -0.1 0.0019290195068161556)
        (0.07870254416831673 -0.1 0.0013573841871947247)
        (0.08077305074558 -0.1 0.0007864639338969644)
        (0.08286912043633307 -0.1 0.0002162684143010088)
        (0.08499061711942849 -0.1 -0.00035319319695823956)
        (0.08713740330297909 -0.1 -0.000921912229251913)
        (0.08930934013331193 -0.1 -0.0014898805268661712)
        (0.091506287403891 -0.1 -0.0020570904595440427)
        (0.09372810356420824 -0.1 -0.0026235349326490555)
        (0.09597464572864045 -0.1 -0.0031892073969380583)
        (0.09824576968527154 -0.1 -0.0037541018579320476)
        (0.10054132990467868 -0.1 -0.00431821288487402)
        (0.1028611795486816 -0.1 -0.004881535619262769)
        (0.10520517047905428 -0.1 -0.005444065782952253)
        (0.10757315326619854 -0.1 -0.006005799685806678)
        (0.10996497719777856 -0.1 -0.006566734232901435)
        (0.1123804902873165 -0.1 -0.007126866931260509)
        (0.11481953928274893 -0.1 -0.007686195896121746)
        (0.11728196967494392 -0.1 -0.008244719856721157)
        (0.11976762570617897 -0.1 -0.008802438161588537)
        (0.12227635037857967 -0.1 -0.009359350783346286)
        (0.12480798546252067 -0.1 -0.009915458323004736)
        (0.12736237150498766 -0.1 -0.010470762013746655)
        (0.1299393478379029 -0.1 -0.011025263724195055)
        (0.13253875258641348 -0.1 -0.011578965961158007)
        (0.1351604226771448 -0.1 -0.012131871871845269)
        (0.137804193846419 -0.1 -0.012683985245551636)
        (0.14046990064844062 -0.1 -0.013235310514802517)
        (0.14315737646345017 -0.1 -0.013785852755957635)
        (0.1458664535058471 -0.1 -0.014335617689269352)
        (0.14859696283228466 -0.1 -0.014884611678392404)
        (0.1513487343497369 -0.1 -0.015432841729342572)
        (0.1541215968235412 -0.1 -0.015980315488901962)
        (0.15691537788541682 -0.1 -0.016527041242469384)
        (0.159729904041463 -0.1 -0.017073027911354684)
        (0.16256500068013746 -0.1 -0.017618285049516114)
        (0.16542049208021833 -0.1 -0.01816282283974085)
        (0.1682962014187521 -0.1 -0.0187066520892688)
        (0.17119195077898902 -0.1 -0.01924978422486054)
        (0.17410756115830978 -0.1 -0.019792231287310565)
        (0.17704285247614487 -0.1 -0.020334005925407746)
        (0.17999764358189085 -0.1 -0.02087512138934531)
        (0.18297175226282425 -0.1 -0.021415591523582776)
        (0.18596499525201843 -0.1 -0.021955430759163525)
        (0.18897718823626428 -0.1 -0.022494654105491393)
        (0.1920081458639986 -0.1 -0.023033277141570486)
        (0.19505768175324373 -0.1 -0.02357131600671315)
        (0.19812560849955996 -0.1 -0.024108787390720855)
        (0.20121173768401618 -0.1 -0.024645708523544165)
        (0.20431587988117916 -0.1 -0.025182097164426934)
        (0.20743784466712747 -0.1 -0.02571797159054239)
        (0.21057744062749117 -0.1 -0.02625335058512724)
        (0.2137344753655216 -0.1 -0.026788253425121457)
        (0.21690875551019423 -0.1 -0.027322699868321754)
        (0.22010008672434794 -0.1 -0.027856710140056994)
        (0.22330827371286416 -0.1 -0.028390304919394017)
        (0.22653312023088862 -0.1 -0.028923505324883324)
        (0.2297744290920998 -0.1 -0.029456332899853995)
        (0.23303200217702683 -0.1 -0.029988809597267872)
        (0.23630564044142038 -0.1 -0.030520957764143236)
        (0.23959514392467884 -0.1 -0.031052800125558732)
        (0.24290031175833524 -0.1 -0.03158435976824878)
        (0.2462209421746056 -0.1 -0.032115660123801695)
        (0.249556832515003 -0.1 -0.03264672495147249)
        (0.2529077792390202 -0.1 -0.033177578320622306)
        (0.2562735779328853 -0.1 -0.03370824459279735)
        (0.2596540233183905 -0.1 -0.034238748403459716)
        (0.26304890926179914 -0.1 -0.03476911464338328)
        (0.266458028782834 -0.1 -0.03529936843972844)
        (0.26988117406374773 -0.1 -0.03582953513680877)
        (0.27331813645848035 -0.1 -0.036359640276564124)
        (0.27676870650190477 -0.1 -0.036889709578754135)
        (0.2802326739191641 -0.1 -0.03741976892088654)
        (0.28370982763510244 -0.1 -0.03794984431789511)
        (0.28719995578379165 -0.1 -0.03847996190158229)
        (0.2907028457181566 -0.1 -0.03901014789984113)
   )                                                                               
                                                                                   
   spline 7 5                                                                      
   (                                                                               
        (0.29421828401970124 -0.1 -0.039540428615672654)
        (0.2977460565083373 -0.1 -0.04007083040601336)
        (0.3012859482523166 -0.1 -0.04060137966038904)
        (0.30483774357827154 -0.1 -0.041132102779410526)
        (0.30840122608136256 -0.1 -0.041663026153127475)
        (0.31197617863553556 -0.1 -0.042194176139256)
        (0.31556238340389103 -0.1 -0.042725579041296556)
        (0.31915962184916574 -0.1 -0.04325726108655869)
        (0.32276767474432827 -0.1 -0.043789248404108035)
        (0.3263863221832896 -0.1 -0.04432156700265311)
        (0.3300153435917303 -0.1 -0.044854242748387736)
        (0.3336545177380438 -0.1 -0.04538730134280572)
        (0.3373036227443983 -0.1 -0.04592076830050455)
        (0.34096243609791577 -0.1 -0.04645466892699425)
        (0.34463073466197114 -0.1 -0.046989028296528484)
        (0.3483082946876095 -0.1 -0.047523871229973785)
        (0.35199489182508237 -0.1 -0.04805922227273393)
        (0.3556903011355046 -0.1 -0.04859510567274586)
        (0.3593942971026289 -0.1 -0.04913154535856285)
        (0.3631066536447404 -0.1 -0.04966856491754215)
        (0.3668271441266691 -0.1 -0.050206187574152614)
        (0.3705555413719212 -0.1 -0.05074443616841873)
        (0.3742916176749272 -0.1 -0.051283333134516614)
        (0.37803514481340655 -0.1 -0.05182290047953858)
        (0.3817858940608492 -0.1 -0.05236315976244098)
        (0.3855436361991104 -0.1 -0.05290413207319145)
        (0.3893081415311201 -0.1 -0.0534458380121308)
        (0.3930810571888883 -0.1 -0.05398862310362283)
        (0.3968840487860976 -0.1 -0.05453519429114351)
        (0.4006933707757848 -0.1 -0.05508053104599022)
        (0.4045087850672131 -0.1 -0.055624641179740274)
        (0.40833005315917204 -0.1 -0.056167532397105153)
        (0.4121569361556307 -0.1 -0.05670921228038369)
        (0.41598919478143725 -0.1 -0.057249688274116105)
        (0.41982658939806117 -0.1 -0.05778896766995065)
        (0.42366888001937736 -0.1 -0.05832705759173559)
        (0.42751582632748575 -0.1 -0.05886396498084755)
        (0.43136718768856774 -0.1 -0.05939969658176753)
        (0.43522272316877325 -0.1 -0.059934258927916775)
        (0.4390821915501387 -0.1 -0.060467658327761964)
        (0.4429453513465308 -0.1 -0.06099990085120129)
        (0.44681196081961305 -0.1 -0.06153099231624108)
        (0.4506817779948359 -0.1 -0.062060938275973185)
        (0.45455456067744215 -0.1 -0.06258974400586274)
        (0.45843006646848994 -0.1 -0.0631174144913551)
        (0.46230805278088655 -0.1 -0.06364395441581142)
        (0.4661882768554333 -0.1 -0.06416936814878135)
        (0.47007049577687654 -0.1 -0.06469365973462066)
        (0.47395446648996253 -0.1 -0.06521683288146204)
        (0.47783994581549494 -0.1 -0.06573889095054657)
        (0.48172669046638894 -0.1 -0.06625983694592272)
        (0.4856144570637233 -0.1 -0.06677967350451992)
        (0.4895030021527833 -0.1 -0.06729840288660278)
        (0.4933920822190958 -0.1 -0.06781602696661232)
        (0.4972814537044513 -0.1 -0.06833254722439938)
        (0.5011708730229105 -0.1 -0.06884796473685578)
        (0.5050600965767948 -0.1 -0.06936228016994794)
        (0.5089488807726548 -0.1 -0.06987549377115727)
        (0.5128369820372171 -0.1 -0.0703876053623314)
        (0.5167241568333056 -0.1 -0.0708986143329502)
        (0.5206101616757361 -0.1 -0.07140851963380919)
        (0.5244947531471789 -0.1 -0.0719173197711239)
        (0.5283776879139901 -0.1 -0.07242501280105693)
        (0.5322587227420083 -0.1 -0.07293159632467018)
        (0.5361376145123138 -0.1 -0.07343706748330388)
        (0.540014120236948 -0.1 -0.07394142295438313)
        (0.5438879970745925 -0.1 -0.07444465894765367)
        (0.5477590023462036 -0.1 -0.07494677120184627)
        (0.5516268935506019 -0.1 -0.07544775498177073)
        (0.5554914283800141 -0.1 -0.07594760507583855)
        (0.5593523647355645 -0.1 -0.07644631579401336)
        (0.5632094607427164 -0.1 -0.07694388096618873)
        (0.5670624747666602 -0.1 -0.07744029394099128)
        (0.5709111654276449 -0.1 -0.07793554758500681)
        (0.5747552916162559 -0.1 -0.07842963428242838)
        (0.5785946125086323 -0.1 -0.07892254593512225)
        (0.5824288875816256 -0.1 -0.07941427396310982)
        (0.5862578766278974 -0.1 -0.07990480930546123)
        (0.5900813397709552 -0.1 -0.08039414242159801)
        (0.5938990374801234 -0.1 -0.08088226329299911)
        (0.5977107305854497 -0.1 -0.08136916142530762)
        (0.6015161802925464 -0.1 -0.08185482585083198)
        (0.6053151481973651 -0.1 -0.0823392451314374)
        (0.6091073963009006 -0.1 -0.08282240736182157)
        (0.6128926870238289 -0.1 -0.08330430017316927)
        (0.6166707832210752 -0.1 -0.08378491073717949)
        (0.6204414481963094 -0.1 -0.08426422577045897)
        (0.6242044457163725 -0.1 -0.08474223153927524)
        (0.6279595400256315 -0.1 -0.08521891386466221)
        (0.6317064958602611 -0.1 -0.08569425812787154)
        (0.6354450784624532 -0.1 -0.08616824927616135)
        (0.6391750535945543 -0.1 -0.08664087182891561)
        (0.642896187553129 -0.1 -0.08711210988408538)
        (0.6466082471829512 -0.1 -0.08758194712494388)
        (0.6503109998909204 -0.1 -0.0880503668271471)
        (0.6540042136599068 -0.1 -0.08851735186609078)
        (0.6576876570625212 -0.1 -0.0889828847245556)
        (0.6613610992748131 -0.1 -0.08944694750063051)
        (0.6650243100898945 -0.1 -0.08990952191590537)
        (0.6686770599314931 -0.1 -0.09037058932392394)
        (0.672319119867431 -0.1 -0.09083013071888617)
        (0.675950261623033 -0.1 -0.09128812674459147)
        (0.6795702575944619 -0.1 -0.09174455770361162)
        (0.6831788808619857 -0.1 -0.09219940356668477)
        (0.6867759052031719 -0.1 -0.0926526439823182)
        (0.6903611051060126 -0.1 -0.09310425828659188)
        (0.6939342557819834 -0.1 -0.09355422551315014)
        (0.6974951331790296 -0.1 -0.09400252440337245)
        (0.7010435139944906 -0.1 -0.09444913341671199)
        (0.704579175687953 -0.1 -0.09489403074119118)
        (0.7081018964940424 -0.1 -0.09533719430404396)
        (0.7116114554351487 -0.1 -0.09577860178249345)
        (0.7151076323340879 -0.1 -0.09621823061465423)
        (0.7185902078267041 -0.1 -0.09665605801054893)
        (0.7220589633744068 -0.1 -0.09709206096322676)
        (0.7255136812766523 -0.1 -0.09752621625997536)
        (0.7289541446833637 -0.1 -0.09795850049361259)
        (0.7323801376072943 -0.1 -0.0983888900738492)
        (0.7357914449363353 -0.1 -0.09881736123871071)
        (0.7391878524457678 -0.1 -0.09924389006600766)
        (0.7425691468104625 -0.1 -0.09966845248484378)
        (0.7459351156170255 -0.1 -0.10009102428715122)
        (0.749285547375895 -0.1 -0.1005115811392422)
        (0.7526202315333884 -0.1 -0.10093009859336644)
        (0.7559389584836986 -0.1 -0.10134655209926405)
        (0.759241519580849 -0.1 -0.10176091701570351)
        (0.762527707150597 -0.1 -0.10217316862199421)
        (0.7657973145022994 -0.1 -0.10258328212946406)
        (0.7690501359407298 -0.1 -0.10299123269289118)
        (0.7722859667778604 -0.1 -0.10339699542188098)
        (0.7755046033445999 -0.1 -0.10380054539217788)
        (0.7787058430024951 -0.1 -0.10420185765690286)
        (0.7818894841553957 -0.1 -0.10460090725770678)
        (0.7850553262610817 -0.1 -0.10499766923583127)
        (0.788203169842859 -0.1 -0.1053921186430668)
        (0.7913328165011191 -0.1 -0.10578423055260038)
        (0.7944440689248712 -0.1 -0.10617398006974355)
        (0.7975367309032387 -0.1 -0.10656134234253216)
        (0.8006106073369317 -0.1 -0.10694629257219049)
        (0.8036655042496862 -0.1 -0.10732880602345068)
        (0.806701228799681 -0.1 -0.10770885803472045)
        (0.8097175892909255 -0.1 -0.10808642402809149)
        (0.8127143951846251 -0.1 -0.10846147951918092)
        (0.8156914571105196 -0.1 -0.10883400012679896)
        (0.8186485868782029 -0.1 -0.10920396158243631)
        (0.821585597488417 -0.1 -0.10957133973956412)
        (0.8245023031443268 -0.1 -0.10993611058274097)
        (0.8273985192627743 -0.1 -0.11029825023652014)
        (0.830274062485513 -0.1 -0.11065773497415199)
        (0.8331287506904229 -0.1 -0.11101454122607614)
        (0.8359624030027076 -0.1 -0.11136864558819753)
        (0.8387748398060737 -0.1 -0.11172002482994212)
        (0.8415658827538927 -0.1 -0.11206865590208756)
        (0.8443353547803445 -0.1 -0.11241451594436433)
        (0.8470830801115473 -0.1 -0.1127575822928234)
        (0.8498088842766675 -0.1 -0.11309783248696688)
        (0.8525125941190147 -0.1 -0.1134352442766378)
        (0.8551940378071222 -0.1 -0.11376979562866658)
        (0.8578530448458079 -0.1 -0.11410146473327067)
        (0.8604894460872216 -0.1 -0.11443023001020515)
        (0.8631030737418739 -0.1 -0.11475607011466236)
        (0.8656937613896495 -0.1 -0.11507896394291803)
        (0.868261343990803 -0.1 -0.1153988906377225)
        (0.8708056578969379 -0.1 -0.11571582959343629)
        (0.8733265408619645 -0.1 -0.11602976046090799)
        (0.8758238320530445 -0.1 -0.11634066315209467)
        (0.8782973720615102 -0.1 -0.11664851784442351)
        (0.8807470029137691 -0.1 -0.11695330498489571)
        (0.8831725680821827 -0.1 -0.11725500529393132)
        (0.8855739124959269 -0.1 -0.11755359976895664)
        (0.8879508825518284 -0.1 -0.11784906968773484)
        (0.8903033261251745 -0.1 -0.11814139661143966)
        (0.8926310925805023 -0.1 -0.11843056238747537)
        (0.8949340327823567 -0.1 -0.11871654915204286)
        (0.897211999106023 -0.1 -0.11899933933245453)
        (0.899464845448229 -0.1 -0.11927891564920039)
        (0.901692427237816 -0.1 -0.11955526111776675)
        (0.9038946014463768 -0.1 -0.11982835905021161)
        (0.90607122659886 -0.1 -0.120098193056498)
        (0.9082221627841369 -0.1 -0.12036474704558982)
        (0.9103472716655306 -0.1 -0.12062800522631298)
        (0.9124464164913049 -0.1 -0.12088795210798553)
        (0.9145194621051104 -0.1 -0.12114457250082059)
        (0.9165662749563873 -0.1 -0.12139785151610663)
        (0.918586723110719 -0.1 -0.12164777456616879)
        (0.920580676260139 -0.1 -0.12189432736411634)
        (0.9225480057333862 -0.1 -0.12213749592338093)
        (0.9244885845061048 -0.1 -0.12237726655705014)
        (0.9264022872109892 -0.1 -0.12261362587700243)
        (0.9282889901478693 -0.1 -0.12284656079284771)
        (0.930148571293734 -0.1 -0.12307605851067986)
        (0.9319809103126916 -0.1 -0.1233021065316467)
        (0.933785888565862 -0.1 -0.12352469265034328)
        (0.9355633891211987 -0.1 -0.1237438049530342)
        (0.9373132967632398 -0.1 -0.12395943181571159)
        (0.9390354980027814 -0.1 -0.12417156190199488)
        (0.9407298810864732 -0.1 -0.12438018416087847)