/*--------------------------------*- C++ -*----------------------------------*\   
| =========                 |                                                 |    
| \\      /  F ield         | OpenFOAM: The Open Source CFD Toolbox           |  
|  \\    /   O peration     | Version:  v2112                                 |  
|   \\  /    A nd           | Website:  www.openfoam.com                      |  
|    \\/     M anipulation  |                                                 |  
\*---------------------------------------------------------------------------*/   
FoamFile                                                                           
{                                                                                  
    version     2.0;                                                               
    format      ascii;                                                             
    class       dictionary;                                                        
    object      blockMeshDict;                                                     
}                                                                                  
// * * * * * * * * * * * * * * * * * * * * * * * * * * * * * * * * * * * * * //    
                                                                                   
domain                                                                             
{                                                                                  
   xMin        -10; 
   xMax        30; 
   zMin        -10; 
   zMax        10; 
                                                                                   
   // Number of cells                                                              
   xCellsB0    146; // leading edge to xLower 
   xCellsB1    70; // xLower to trailing edge 
   xCellsB2    60; // trailing edge to outlet 
   xCellsB3    146; // leading edge to xUpper 
   xCellsB4    70; // xUpper to trailing edge 
   xCellsB5    60; // trailing edge to outlet 
   zCells      224; // aerofoil to far field 
                                                                                   
   // Mesh grading                                                                 
   xGrading74  0.01; // from 7 to 4 
   xGrading03  1; // from 0 to 3 
   xGradingB1  1.0; // from 0 to 1 & 7 to 5 
   xGradingB2  276.8014904921996; // from 1 to 2 & 5 to 6 
   xGrading84  0.01; // from 8 to 4 
   xGrading93  1; // from 9 to 3 
   xGradingB4  1.0; // from 9 to 10 & 8 to 5 
   xGradingB5  276.8014904921996; // from 10 to 11 & 5 to 6 
   zGrading    53114.57277489296; // from airfoil to far field 
}                                                                                  
                                                                                   
aerofoil                                                                           
{                                                                                  
   xLead       -0.24148145657226708; 
   zLead       0.06470476127563018; 
   xTrail      0.7244443697168013; 
   zTrail      -0.19411428382689053; 
   xUpper      0.06300843889412783; 
   zUpper      0.045240838918331375; 
   xLower      0.031946489275948495; 
   zLower      -0.07068393523885859; 
}                                                                                  
                                                                                   
geometry                                                                           
{                                                                                  
   // aerofoil = NACA0012 
   // AoA      = 15.0 deg 
                                                                                   
   cylinder                                                                        
   {                                                                               
       type    cylinder;                                                           
       point1  ($:aerofoil.xUpper -1e3 0);                                         
       point2  ($:aerofoil.xUpper  1e3 0);                                         
       radius  $:domain.zMax;                                                      
   }                                                                               
}                                                                                  
                                                                                   
vertices                                                                           
(                                                                                  
   project ($aerofoil.xLower   -0.1 $domain.zMin)      (cylinder)                  
           ($aerofoil.xTrail   -0.1 $domain.zMin)                                  
           ($domain.xMax       -0.1 $domain.zMin)                                  
                                                                                   
   project ($domain.xMin       -0.1 $aerofoil.zLead)   (cylinder)                  
           ($aerofoil.xLead    -0.1 $aerofoil.zLead)                               
           ($aerofoil.xTrail   -0.1 $aerofoil.zTrail)                              
           ($domain.xMax       -0.1 $aerofoil.zTrail)                              
                                                                                   
           ($aerofoil.xLower   -0.1 $aerofoil.zLower)                              
           ($aerofoil.xUpper   -0.1 $aerofoil.zUpper)                              
                                                                                   
           ($aerofoil.xUpper   -0.1 $domain.zMax)                                  
           ($aerofoil.xTrail   -0.1 $domain.zMax)                                  
           ($domain.xMax       -0.1 $domain.zMax)                                  
                                                                                   
   project ($aerofoil.xLower   0.1 $domain.zMin)       (cylinder)                  
           ($aerofoil.xTrail   0.1 $domain.zMin)                                   
           ($domain.xMax       0.1 $domain.zMin)                                   
                                                                                   
   project ($domain.xMin       0.1 $aerofoil.zLead)    (cylinder)                  
           ($aerofoil.xLead    0.1 $aerofoil.zLead)                                
           ($aerofoil.xTrail   0.1 $aerofoil.zTrail)                               
           ($domain.xMax       0.1 $aerofoil.zTrail)                               
                                                                                   
           ($aerofoil.xLower   0.1 $aerofoil.zLower)                               
           ($aerofoil.xUpper   0.1 $aerofoil.zUpper)                               
                                                                                   
           ($aerofoil.xUpper   0.1 $domain.zMax)                                   
           ($aerofoil.xTrail   0.1 $domain.zMax)                                   
           ($domain.xMax       0.1 $domain.zMax)                                   
);                                                                                 
                                                                                   
blocks                                                                             
(                                                                                  
   hex (7 4 16 19 0 3 15 12)                                                       
   ($:domain.xCellsB0 1 $:domain.zCells)                                           
   edgeGrading                                                                     
   (                                                                               
       $:domain.xGrading74 $:domain.xGrading74 $:domain.xGrading03 $:domain.xGrading03 
       1 1 1 1                                                                     
       $:domain.zGrading $:domain.zGrading $:domain.zGrading $:domain.zGrading     
   )                                                                               
                                                                                   
   hex (5 7 19 17 1 0 12 13)                                                       
   ($:domain.xCellsB1 1 $:domain.zCells)                                           
   simpleGrading ($:domain.xGradingB1 1 $:domain.zGrading)                         
                                                                                   
   hex (17 18 6 5 13 14 2 1)                                                       
   ($:domain.xCellsB2 1 $:domain.zCells)                                           
   simpleGrading ($:domain.xGradingB2 1 $:domain.zGrading)                         
                                                                                   
   hex (20 16 4 8 21 15 3 9)                                                       
   ($:domain.xCellsB3 1 $:domain.zCells)                                           
   edgeGrading                                                                     
   (                                                                               
       $:domain.xGrading84 $:domain.xGrading84 $:domain.xGrading93 $:domain.xGrading93 
       1 1 1 1                                                                     
       $:domain.zGrading $:domain.zGrading $:domain.zGrading $:domain.zGrading     
   )                                                                               
                                                                                   
   hex (17 20 8 5 22 21 9 10)                                                      
   ($:domain.xCellsB4 1 $:domain.zCells)                                           
   simpleGrading ($:domain.xGradingB4 1 $:domain.zGrading)                         
                                                                                   
   hex (5 6 18 17 10 11 23 22)                                                     
   ($:domain.xCellsB5 1 $:domain.zCells)                                           
   simpleGrading ($:domain.xGradingB5 1 $:domain.zGrading)                         
);                                                                                 
                                                                                   
edges                                                                              
(                                                                                  
   spline 4 7                                                                      
   (                                                                               
        (-0.24148145657226708 -0.1 0.06470476127563018)
        (-0.2416476940767874 -0.1 0.06402447257411077)
        (-0.24178338207467537 -0.1 0.06333843611877288)
        (-0.24188852012139633 -0.1 0.0626466647054179)
        (-0.24196310935173185 -0.1 0.06194917265950954)
        (-0.24200715248006938 -0.1 0.061245975833941264)
        (-0.24202065380078921 -0.1 0.060537091605981815)
        (-0.24200361918874908 -0.1 0.05982253887339547)
        (-0.24195605609986462 -0.1 0.05910233804974507)
        (-0.24187797357178617 -0.1 0.05837651105887562)
        (-0.2417693822246696 -0.1 0.0576450813285874)
        (-0.24163029426204077 -0.1 0.056908073783500074)
        (-0.2414607234717523 -0.1 0.05616551483711377)
        (-0.2412606852270304 -0.1 0.05541743238307356)
        (-0.24103019648761148 -0.1 0.05466385578564353)
        (-0.24076927580096497 -0.1 0.05390481586939642)
        (-0.24047794330360228 -0.1 0.0531403449081279)
        (-0.24015622072246856 -0.1 0.05237047661300296)
        (-0.2398041313764152 -0.1 0.051595246119942435)
        (-0.23942170017775133 -0.1 0.05081468997626005)
        (-0.23900895363387115 -0.1 0.05002884612655962)
        (-0.2385659198489548 -0.1 0.04923775389790179)
        (-0.23809262852573995 -0.1 0.04844145398425258)
        (-0.23758911096736085 -0.1 0.0476399884302239)
        (-0.2370554000792524 -0.1 0.0468334006141193)
        (-0.23649153037111564 -0.1 0.046021735230295985)
        (-0.23589753795894144 -0.1 0.04520503827085734)
        (-0.235273460567089 -0.1 0.04438335700668813)
        (-0.23461933753041578 -0.1 0.04355673996784769)
        (-0.23393520979645466 -0.1 0.042725236923333965)
        (-0.23322111992763558 -0.1 0.04188889886023463)
        (-0.2324771121035465 -0.1 0.041047777962279194)
        (-0.23170323212323082 -0.1 0.04020192758780901)
        (-0.23089952740751674 -0.1 0.039351402247180284)
        (-0.23006604700137356 -0.1 0.03849625757961682)
        (-0.22920284157629303 -0.1 0.03763655032953009)
        (-0.2283099634326879 -0.1 0.03677233832232238)
        (-0.2273874665023065 -0.1 0.035903680439692)
        (-0.22643540635065704 -0.1 0.035030636594457806)
        (-0.225453840179437 -0.1 0.034153267704920984)
        (-0.22444282682896377 -0.1 0.03327163566878342)
        (-0.2234024267806012 -0.1 0.032385803336640685)
        (-0.22233270215917725 -0.1 0.031495834485069416)
        (-0.22123371673538827 -0.1 0.030601793789327928)
        (-0.220105535928184 -0.1 0.02970374679568977)
        (-0.21894822680712955 -0.1 0.028801759893430357)
        (-0.21776185809473872 -0.1 0.027895900286486447)
        (-0.21654650016877297 -0.1 0.026986235964808657)
        (-0.21530222506450178 -0.1 0.02607283567542741)
        (-0.21402910647691942 -0.1 0.025155768893253338)
        (-0.21272721976291145 -0.1 0.024235105791632086)
        (-0.21139664194336766 -0.1 0.023310917212674916)
        (-0.2100374517052345 -0.1 0.022383274637385812)
        (-0.2086497294035032 -0.1 0.021452250155606208)
        (-0.2072335570631269 -0.1 0.020517916435798242)
        (-0.205789018380863 -0.1 0.01958034669468804)
        (-0.20431619872703355 -0.1 0.018639614666789553)
        (-0.20281518514720073 -0.1 0.0176957945738311)
        (-0.20128606636375013 -0.1 0.016748961094104925)
        (-0.19972893277737758 -0.1 0.01579918933176138)
        (-0.19814387646847384 -0.1 0.014846554786068777)
        (-0.19653099119840273 -0.1 0.013891133320660248)
        (-0.19489037241066606 -0.1 0.012933001132787982)
        (-0.19322211723195176 -0.1 0.011972234722606667)
        (-0.19152632447305903 -0.1 0.011008910862506278)
        (-0.18980309462969552 -0.1 0.010043106566515116)
        (-0.18805252988314228 -0.1 0.00907489905979391)
        (-0.18627473410078024 -0.1 0.008104365748240937)
        (-0.18446981283647437 -0.1 0.007131584188228991)
        (-0.18263787333080997 -0.1 0.006156632056493694)
        (-0.18077902451117642 -0.1 0.005179587120193244)
        (-0.1788933769916939 -0.1 0.0042005272071595975)
        (-0.1769810430729777 -0.1 0.0032195301763596265)
        (-0.1750421367417366 -0.1 0.0022366738885863657)
        (-0.17307677367019914 -0.1 0.0012520361773984204)
        (-0.17108507121536526 -0.1 0.00026569482032681724)
        (-0.16906714841807752 -0.1 -0.000722272489632865)
        (-0.16702312600190752 -0.1 -0.0017117881722251357)
        (-0.16495312637185502 -0.1 -0.002702774787817726)
        (-0.16285727361285332 -0.1 -0.0036951550649466022)
        (-0.1607356934880787 -0.1 -0.0046888519275055385)
        (-0.15858851343705913 -0.1 -0.005683788521563447)
        (-0.1564158625735789 -0.1 -0.006679888241793719)
        (-0.15421787168337517 -0.1 -0.007677074757499312)
        (-0.1519946732216229 -0.1 -0.008675272038218232)
        (-0.14974640131020514 -0.1 -0.009674404378894497)
        (-0.14747319173476464 -0.1 -0.010674396424599969)
        (-0.14517518194153442 -0.1 -0.011675173194792582)
        (-0.14285251103394328 -0.1 -0.012676660107097677)
        (-0.14050531976899425 -0.1 -0.013678783000598813)
        (-0.13813375055341232 -0.1 -0.01468146815862556)
        (-0.1357379474395596 -0.1 -0.01568464233102556)
        (-0.1333180561211142 -0.1 -0.016688232755909457)
        (-0.1308742239285119 -0.1 -0.017692167180856873)
        (-0.12840659982414687 -0.1 -0.018696373883573054)
        (-0.12591533439733074 -0.1 -0.01970078169198534)
        (-0.12340057985900649 -0.1 -0.020705320003770043)
        (-0.12086249003621655 -0.1 -0.021709918805300155)
        (-0.11830122036632303 -0.1 -0.02271450869000518)
        (-0.11571692789097805 -0.1 -0.023719020876134905)
        (-0.11310977124984392 -0.1 -0.02472338722391911)
        (-0.1104799106740602 -0.1 -0.025727540252116442)
        (-0.1078275079794584 -0.1 -0.026731413153945432)
        (-0.10515272655952193 -0.1 -0.02773493981239178)
        (-0.10245573137809148 -0.1 -0.028738054814886213)
        (-0.0997366889618144 -0.1 -0.0297406934673481)
        (-0.09699576739233824 -0.1 -0.030742791807590243)
        (-0.0942331362982478 -0.1 -0.03174428661808088)
        (-0.09144896684674528 -0.1 -0.032745115438059934)
        (-0.08864343173507427 -0.1 -0.03374521657500623)
        (-0.08581670518168673 -0.1 -0.03474452911545392)
        (-0.08296896291715403 -0.1 -0.03574299293515605)
        (-0.08010038217482203 -0.1 -0.03674054870859463)
        (-0.0772111416812112 -0.1 -0.03773713791783608)
        (-0.0743014216461618 -0.1 -0.038732702860732646)
        (-0.07137140375272578 -0.1 -0.03972718665846986)
        (-0.0684212711468064 -0.1 -0.04072053326246136)
        (-0.06545120842654577 -0.1 -0.04171268746059277)
        (-0.06246140163146317 -0.1 -0.042703594882816345)
        (-0.05945203823134414 -0.1 -0.043693202006100065)
        (-0.05642330711488357 -0.1 -0.04468145615873299)
        (-0.05337539857808273 -0.1 -0.04566830552399199)
        (-0.05030850431240371 -0.1 -0.046653699143173424)
        (-0.047222817392682664 -0.1 -0.047637586917994315)
        (-0.0441185322648041 -0.1 -0.048619919612369035)
        (-0.040995844733138456 -0.1 -0.049600648853566714)
        (-0.03785495194774581 -0.1 -0.05057972713275569)
        (-0.03469605239134811 -0.1 -0.05155710780494197)
        (-0.03151934586607244 -0.1 -0.052532745088308685)
        (-0.028325033479968502 -0.1 -0.05350659406296437)
        (-0.02511331763330312 -0.1 -0.05447861066910813)
        (-0.02188440200463571 -0.1 -0.055448751704619985)
        (-0.0186384915366757 -0.1 -0.05641697482208618)
        (-0.015375792421928049 -0.1 -0.05738323852526779)
        (-0.012096512088128666 -0.1 -0.058347502165023456)
        (-0.008800859183473925 -0.1 -0.059309725934695585)
        (-0.005489043561646702 -0.1 -0.060269870864971674)
        (-0.0021612762666449632 -0.1 -0.06122789881823069)
        (0.0011822304825847302 -0.1 -0.062183772482386365)
        (0.0045412633077053545 -0.1 -0.06313745536423959)
        (0.007915607686732934 -0.1 -0.06408891178235074)
        (0.011305047969963783 -0.1 -0.06503810685944565)
        (0.014709367396079089 -0.1 -0.06598500651436692)
        (0.018128348108424293 -0.1 -0.06692957745358423)
        (0.021561771171457182 -0.1 -0.06787178716227635)
        (0.025009416587361666 -0.1 -0.06881160389499905)
        (0.028471063312821045 -0.1 -0.0697489966659518)
        (0.031946489275948495 -0.1 -0.07068393523885859)
   )                                                                               
                                                                                   
   spline 7 5                                                                      
   (                                                                               
        (0.031946489275948495 -0.1 -0.07068393523885859)
        (0.035435471393367446 -0.1 -0.07161639011647586)
        (0.03893778558743813 -0.1 -0.0725463325297428)
        (0.042453206803627054 -0.1 -0.07347373442658851)
        (0.045981509028011555 -0.1 -0.07439856846041099)
        (0.04952246530491671 -0.1 -0.07532080797824266)
        (0.05307584775467899 -0.1 -0.07624042700861805)
        (0.0566414275915314 -0.1 -0.07715740024915904)
        (0.060218975141605666 -0.1 -0.07807170305389245)
        (0.063808259861045 -0.1 -0.0789833114203162)
        (0.06740905035422494 -0.1 -0.07989220197622979)
        (0.07102111439207405 -0.1 -0.08079835196634406)
        (0.07464421893049163 -0.1 -0.08170173923868718)
        (0.07827813012885587 -0.1 -0.08260234223082141)
        (0.08192261336861874 -0.1 -0.08350013995588795)
        (0.08557743327198052 -0.1 -0.08439511198849442)
        (0.08924235372064025 -0.1 -0.08528723845046184)
        (0.09291713787461693 -0.1 -0.08617649999644686)
        (0.096601548191135 -0.1 -0.08706287779945455)
        (0.10029534644357034 -0.1 -0.08794635353625822)
        (0.10399829374045051 -0.1 -0.0888269093727416)
        (0.10771015054450545 -0.1 -0.08970452794917953)
        (0.11143067669176217 -0.1 -0.0905791923654721)
        (0.11515963141067834 -0.1 -0.0914508861663485)
        (0.11889677334131178 -0.1 -0.09231959332655543)
        (0.1226418605545176 -0.1 -0.09318529823604538)
        (0.12639465057117094 -0.1 -0.0940479856851803)
        (0.13015490038140812 -0.1 -0.09490764084996482)
        (0.13392236646388317 -0.1 -0.09576424927732494)
        (0.13769680480503363 -0.1 -0.09661779687044547)
        (0.14147797091835065 -0.1 -0.0974682698741817)
        (0.14526561986365022 -0.1 -0.09831565486055896)
        (0.14905950626633888 -0.1 -0.09915993871437398)
        (0.15285938433667062 -0.1 -0.1000011086189121)
        (0.15666500788898938 -0.1 -0.10083915204179332)
        (0.16047613036095454 -0.1 -0.10167405672096108)
        (0.16429250483274208 -0.1 -0.10250581065082606)
        (0.16811388404621994 -0.1 -0.10333440206857783)
        (0.17194002042409065 -0.1 -0.10415981944067704)
        (0.17577066608900013 -0.1 -0.10498205144953976)
        (0.1796055728826054 -0.1 -0.10580108698042609)
        (0.1834444923845988 -0.1 -0.10661691510854399)
        (0.18728717593168573 -0.1 -0.10742952508638003)
        (0.19113337463650903 -0.1 -0.10823890633126731)
        (0.19498283940651998 -0.1 -0.10904504841320105)
        (0.19883532096278905 -0.1 -0.10984794104291196)
        (0.20269056985875505 -0.1 -0.11064757406020713)
        (0.20654833649890808 -0.1 -0.11144393742258767)
        (0.2104083711574029 -0.1 -0.11223702119415158)
        (0.21427042399660073 -0.1 -0.11302681553479124)
        (0.21813424508553425 -0.1 -0.11381331068969286)
        (0.22199958441829498 -0.1 -0.11459649697914598)
        (0.2258661919323378 -0.1 -0.1153763647886702)
        (0.2297338175267027 -0.1 -0.11615290455946625)
        (0.23360221108014761 -0.1 -0.11692610677919768)
        (0.2374711224691928 -0.1 -0.11769596197310911)
        (0.24134030158607253 -0.1 -0.11846246069548737)
        (0.2452094983565918 -0.1 -0.11922559352146964)
        (0.24907846275788695 -0.1 -0.11998535103920456)
        (0.2529469448360865 -0.1 -0.12074172384236978)
        (0.2568146947238718 -0.1 -0.12149470252305039)
        (0.2606814626579339 -0.1 -0.12224427766498144)
        (0.2645469989963265 -0.1 -0.12299043983715788)
        (0.2684110542357113 -0.1 -0.12373317958781406)
        (0.27227337902849763 -0.1 -0.12447248743877579)
        (0.27613372419987003 -0.1 -0.1252083538801857)
        (0.2799918407647068 -0.1 -0.12594076936560397)
        (0.28384747994438625 -0.1 -0.12666972430748522)
        (0.2877003931834803 -0.1 -0.1273952090730316)
        (0.29155033216633347 -0.1 -0.12811721398042253)
        (0.2953970488335268 -0.1 -0.12883572929542017)
        (0.2992402953982278 -0.1 -0.12955074522835075)
        (0.3030798243624226 -0.1 -0.13026225193145927)
        (0.30691538853303185 -0.1 -0.13097023949663683)
        (0.3107467410379102 -0.1 -0.13167469795351824)
        (0.31457363534172733 -0.1 -0.13237561726794694)
        (0.318395825261732 -0.1 -0.13307298734080547)
        (0.3222130649833982 -0.1 -0.13376679800720653)
        (0.32602510907595456 -0.1 -0.13445703903604306)
        (0.3298317125077947 -0.1 -0.13514370012989094)
        (0.3336326306617712 -0.1 -0.13582677092526194)
        (0.3374276193503732 -0.1 -0.13650624099320063)
        (0.3412164348307867 -0.1 -0.13718209984022087)
        (0.3449988338198391 -0.1 -0.1378543369095761)
        (0.3487745735088282 -0.1 -0.13852294158285713)
        (0.3525434115782376 -0.1 -0.13918790318191238)
        (0.35630510621233763 -0.1 -0.1398492109710823)
        (0.3600594161136725 -0.1 -0.14050685415974262)
        (0.363806100517438 -0.1 -0.14116082190514823)
        (0.36754491920574567 -0.1 -0.14181110331557084)
        (0.3712756325217798 -0.1 -0.1424576874537221)
        (0.3749980013838435 -0.1 -0.14310056334045423)
        (0.3787117872993002 -0.1 -0.1437397199587303)
        (0.3824167523784081 -0.1 -0.14437514625785466)
        (0.38611265934804967 -0.1 -0.14500683115795515)
        (0.38979927156536004 -0.1 -0.14563476355470822)
        (0.3934763530312532 -0.1 -0.146258932324297)
        (0.39714366840384924 -0.1 -0.14687932632859307)
        (0.40080098301180217 -0.1 -0.1474959344205522)
        (0.4044480628675348 -0.1 -0.1481087454498142)
        (0.4080846746803764 -0.1 -0.14871774826849607)
        (0.4117105858696092 -0.1 -0.149322931737169)
        (0.415325564577424 -0.1 -0.14992428473100797)
        (0.41892937968178834 -0.1 -0.1505217961461043)
        (0.4225218008092268 -0.1 -0.15111545490592881)
        (0.4261025983475168 -0.1 -0.15170524996793644)
        (0.42967154345830316 -0.1 -0.1522911703303001)
        (0.4332284080896305 -0.1 -0.15287320503876325)
        (0.43677296498839924 -0.1 -0.1534513431935998)
        (0.4403049877127431 -0.1 -0.15402557395667002)
        (0.4438242506443353 -0.1 -0.15459588655856155)
        (0.4473305290006205 -0.1 -0.15516227030580376)
        (0.4508235988469779 -0.1 -0.15572471458814402)
        (0.4543032371088176 -0.1 -0.15628320888587494)
        (0.45776922158360966 -0.1 -0.15683774277720058)
        (0.4612213309528529 -0.1 -0.157388305945631)
        (0.4646593447939795 -0.1 -0.15793488818739268)
        (0.46808304359220326 -0.1 -0.15847747941884469)
        (0.47149220875231 -0.1 -0.15901606968388826)
        (0.4748866226103938 -0.1 -0.15955064916135925)
        (0.4782660684455414 -0.1 -0.1600812081723918)
        (0.48163033049146503 -0.1 -0.1606077371877423)
        (0.4849791939480888 -0.1 -0.16113022683506312)
        (0.48831244499308885 -0.1 -0.16164866790611404)
        (0.4916298707933874 -0.1 -0.162163051363902)
        (0.4949312595166083 -0.1 -0.1626733683497375)
        (0.49821640034249004 -0.1 -0.16317961019019733)
        (0.5014850834742614 -0.1 -0.16368176840398427)
        (0.5047371001499816 -0.1 -0.16417983470867156)
        (0.5079722426538452 -0.1 -0.16467380102732437)
        (0.5111903043274568 -0.1 -0.16516365949498682)
        (0.5143910795810711 -0.1 -0.16564940246502574)
        (0.5175743639048089 -0.1 -0.16613102251532133)
        (0.5207399538798418 -0.1 -0.16660851245429617)
        (0.523887647189554 -0.1 -0.16708186532677222)
        (0.5270172426306778 -0.1 -0.16755107441964895)
        (0.530128540124409 -0.1 -0.16801613326739273)
        (0.5332213407274989 -0.1 -0.1684770356573293)
        (0.5362954466433283 -0.1 -0.16893377563473244)
        (0.5393506612329609 -0.1 -0.16938634750769957)
        (0.5423867890261822 -0.1 -0.1698347458518083)
        (0.5454036357325194 -0.1 -0.17027896551454583)
        (0.548401008252249 -0.1 -0.17071900161950457)
        (0.5513787146873873 -0.1 -0.17115484957033772)
        (0.5543365643526712 -0.1 -0.17158650505446849)
        (0.5572743677865241 -0.1 -0.17201396404654648)
        (0.5601919367620115 -0.1 -0.17243722281164656)
        (0.5630890842977853 -0.1 -0.1728562779082041)
        (0.5659656246690185 -0.1 -0.1732711261906819)
        (0.5688213734183291 -0.1 -0.1736817648119648)
        (0.5716561473666961 -0.1 -0.17408819122547664)
        (0.5744697646243659 -0.1 -0.17449040318701622)
        (0.5772620446017493 -0.1 -0.17488839875630874)
        (0.5800328080203112 -0.1 -0.17528217629826956)
        (0.5827818769234516 -0.1 -0.17567173448397658)
        (0.5855090746873776 -0.1 -0.17605707229134995)
        (0.5882142260319666 -0.1 -0.17643818900553618)
        (0.5908971570316223 -0.1 -0.17681508421899467)
        (0.5935576951261203 -0.1 -0.17718775783128587)
        (0.5961956691314441 -0.1 -0.17755621004855957)
        (0.5988109092506124 -0.1 -0.17792044138274282)
        (0.601403247084495 -0.1 -0.1782804526504267)
        (0.603972515642618 -0.1 -0.17863624497145222)
        (0.6065185493539572 -0.1 -0.17898781976719627)
        (0.6090411840777178 -0.1 -0.17933517875855712)
        (0.6115402571141023 -0.1 -0.17967832396364178)
        (0.6140156072150625 -0.1 -0.1800172576951557)
        (0.6164670745950365 -0.1 -0.18035198255749757)
        (0.6188945009416663 -0.1 -0.18068250144356024)
        (0.6212977294265027 -0.1 -0.1810088175312412)
        (0.6236766047156844 -0.1 -0.18133093427966546)
        (0.626030972980599 -0.1 -0.18164885542512274)
        (0.6283606819085231 -0.1 -0.18196258497672466)
        (0.6306655807132344 -0.1 -0.1822721272117836)
        (0.6329455201456008 -0.1 -0.18257748667091891)
        (0.6352003525041408 -0.1 -0.18287866815289455)
        (0.6374299316455541 -0.1 -0.1831756767091923)
        (0.6396341129952214 -0.1 -0.1834685176383273)
        (0.6418127535576702 -0.1 -0.18375719647990954)
        (0.6439657119270046 -0.1 -0.1840417190084582)
        (0.6460928482972988 -0.1 -0.1843220912269748)
        (0.648194024472949 -0.1 -0.18459831936028084)
        (0.6502691038789838 -0.1 -0.18487040984812733)
        (0.6523179515713303 -0.1 -0.18513836933808245)
        (0.6543404342470318 -0.1 -0.18540220467820506)
        (0.6563364202544166 -0.1 -0.18566192290951072)
        (0.6583057796032166 -0.1 -0.1859175312582387)