/*--------------------------------*- C++ -*----------------------------------*\   
| =========                 |                                                 |    
| \\      /  F ield         | OpenFOAM: The Open Source CFD Toolbox           |  
|  \\    /   O peration     | Version:  v2112                                 |  
|   \\  /    A nd           | Website:  www.openfoam.com                      |  
|    \\/     M anipulation  |                                                 |  
\*---------------------------------------------------------------------------*/   
FoamFile
{
    version     2.0;
    format      ascii;
    class       dictionary;
    object      controlDict;
}
// * * * * * * * * * * * * * * * * * * * * * * * * * * * * * * * * * * * * * //

application        rhoSimpleFoam;

startFrom          startTime;

startTime          0;

stopAt             endTime;

endTime            10000;

deltaT             1;

writeControl       timeStep;

writeInterval      10000;

purgeWrite         0;

writeFormat        binary;

writePrecision     6;

writeCompression   on;

timeFormat         general;

timePrecision      6;

runTimeModifiable  true;

functions
{
    #include "forceCoeffs"
    #include "runTimeControl"
}

yPlus1
{
   type            yPlus;
   libs            (fieldFunctionObjects);

   writePrecision  8;
   writeToFile     true;
   useUserTime     true;
   region          region0;
   enabled         true;
   log             true;
   timeStart       0;
   timeEnd         10000;
   executeControl  timeStep;
   executeInterval 1;
   writeControl    timeStep;
   writeInterval   1;
}
                                                                                   
// ************************************************************************* //    
