/*--------------------------------*- C++ -*----------------------------------*\   
| =========                 |                                                 |    
| \\      /  F ield         | OpenFOAM: The Open Source CFD Toolbox           |  
|  \\    /   O peration     | Version:  v2206                                 |  
|   \\  /    A nd           | Website:  www.openfoam.com                      |  
|    \\/     M anipulation  |                                                 |  
\*---------------------------------------------------------------------------*/   
FoamFile                                                                           
{                                                                                  
    version     2.0;                                                               
    format      ascii;                                                             
    class       dictionary;                                                        
    object      extrudeMeshDict;                                                   
}                                                                                  
// * * * * * * * * * * * * * * * * * * * * * * * * * * * * * * * * * * * * * //    
                                                                                   
constructFrom      patch;                                                          
sourceCase         ".";                                                            
                                                                                   
sourcePatches      (symFront);                                                 
exposedPatchName   symBack;                                                    
                                                                                   
flipNormals        false;                                                          
                                                                                   
extrudeModel       linearDirection;                                                
                                                                                   
nLayers            1;                                                              
                                                                                   
expansionRatio     1.0;                                                            
                                                                                   
linearDirectionCoeffs                                                              
{                                                                                  
   direction       (0 0 1);                                                    
   thickness       1.0; 
}                                                                                  
                                                                                   
mergeFaces         false;                                                          
                                                                                   
mergeTol           1e-9;                                                           
                                                                                   
// ************************************************************************* //    
