/*--------------------------------*- C++ -*----------------------------------*\
| =========                 |                                                 |
| \\      /  F ield         | OpenFOAM: The Open Source CFD Toolbox           |
|  \\    /   O peration     | Version:  v2206                                 |
|   \\  /    A nd           | Website:  www.openfoam.com                      |
|    \\/     M anipulation  |                                                 |
\*---------------------------------------------------------------------------*/
FoamFile
{
    version     2.0;
    format      ascii;
    class       dictionary;
    object      fvSolution;
}
// * * * * * * * * * * * * * * * * * * * * * * * * * * * * * * * * * * * * * //

solvers
{

    p
    {
        solver          GAMG;
        smoother        GaussSeidel;
        tolerance       1e-6;
        relTol          0;
/*
        minIter                 3;
        maxIter                 100;
        nPreSweeps              0;
        nPostSweeps             2;
        cacheAgglomeration      on;
        agglomerator            faceAreaPair;
        nCellsInCoarsestLevel   500;
        mergeLevels             1;
*/
    }

    "(U|k|omega|e)"
    {
        solver          PBiCGStab;
        preconditioner  DILU;
        tolerance       1e-8;
        relTol          0;

        minIter         2;
    }


    cellDisplacement
    {
        solver          GAMG;
        smoother        GaussSeidel;
        tolerance       1e-8;
        relTol          0.0;
    }

/*
    yPsi
    {
        solver          GAMG;
        smoother        GaussSeidel;
        cacheAgglomeration true;
        nCellsInCoarsestLevel 10;
        agglomerator    faceAreaPair;
        mergeLevels     1;
        tolerance       1e-5;
        relTol          0;
    }
*/
}

SIMPLE
{
    nNonOrthogonalCorrectors 1;

    pMinFactor          0.1;
    pMaxFactor          2;
}

relaxationFactors
{
    fields
    {
        p               0.3;
        rho             0.3;
    }
    equations
    {
        U               0.7;
        e               0.7;
        "(k|omega)"     0.7;
    }
}

// ************************************************************************* //
