/*--------------------------------*- C++ -*----------------------------------*\
| =========                 |                                                 |
| \\      /  F ield         | OpenFOAM: The Open Source CFD Toolbox           |
|  \\    /   O peration     | Version:  v2206                                 |
|   \\  /    A nd           | Website:  www.openfoam.com                      |
|    \\/     M anipulation  |                                                 |
\*---------------------------------------------------------------------------*/
FoamFile
{
    version     2.0;
    format      ascii;
    class       dictionary;
    object      yPlus;
}
// * * * * * * * * * * * * * * * * * * * * * * * * * * * * * * * * * * * * * //

yPlus
{
   type            yPlus;
   libs            (fieldFunctionObjects);

   writePrecision  8;
   writeToFile     true;
   useUserTime     true;
   region          region0;
   enabled         true;
   log             true;
   timeStart       0;
   timeEnd         10000;
   executeControl  timeStep;
   executeInterval 1;
   writeControl    outputTime;
}