/*--------------------------------*- C++ -*----------------------------------*\   
| =========                 |                                                 |    
| \\      /  F ield         | OpenFOAM: The Open Source CFD Toolbox           |  
|  \\    /   O peration     | Version:  v2206                                 |  
|   \\  /    A nd           | Website:  www.openfoam.com                      |  
|    \\/     M anipulation  |                                                 |  
\*---------------------------------------------------------------------------*/   
FoamFile                                                                           
{                                                                                  
    version     2.0;                                                               
    format      ascii;                                                             
    class       dictionary;                                                        
    object      surfaceFeatureExtractDict;                                         
}                                                                                  
// * * * * * * * * * * * * * * * * * * * * * * * * * * * * * * * * * * * * * //    
                                                                                   
naca0012_10deg.stl 
{                                                                                  
   extractionMethod        extractFromSurface;                                     
                                                                                   
   extractFromSurfaceCoeffs                                                        
   {                                                                               
       includedAngle       150;                                                    
   }                                                                               
                                                                                   
   subsetFeatures                                                                  
   {                                                                               
       nonManifoldEdges    yes;                                                    
       openEdges           yes;                                                    
   }                                                                               
                                                                                   
   writeObj                no;                                                     
}                                                                                  
                                                                                   
// ************************************************************************* //    
