/*--------------------------------*- C++ -*----------------------------------*\   
| =========                 |                                                 |    
| \\      /  F ield         | OpenFOAM: The Open Source CFD Toolbox           |  
|  \\    /   O peration     | Version:  v2112                                 |  
|   \\  /    A nd           | Website:  www.openfoam.com                      |  
|    \\/     M anipulation  |                                                 |  
\*---------------------------------------------------------------------------*/   
FoamFile                                                                           
{                                                                                  
    version     2.0;                                                               
    format      ascii;                                                             
    class       volScalarField;                                                    
    object      k;                                                                 
}                                                                                  
// * * * * * * * * * * * * * * * * * * * * * * * * * * * * * * * * * * * * * //    
                                                                                   
kInlet         5.727908481032045; 
                                                                                   
dimensions     [0 2 -2 0 0 0 0];                                                   
                                                                                   
internalField  uniform $kInlet;                                                    
                                                                                   
boundaryField                                                                      
{                                                                                  
   "(inlet|outlet)"                                                                
   {                                                                               
       type            inletOutlet;                                                
       inletValue      uniform $kInlet;                                            
       value           uniform $kInlet;                                            
   }                                                                               
                                                                                   
   wall                                                                            
   {                                                                               
       type            kqRWallFunction;                                            
   }                                                                               
                                                                                   
   #includeEtc "caseDicts/setConstraintTypes"                                      
}                                                                                  
                                                                                   
// ************************************************************************* //    
