/*--------------------------------*- C++ -*----------------------------------*\   
| =========                 |                                                 |    
| \\      /  F ield         | OpenFOAM: The Open Source CFD Toolbox           |  
|  \\    /   O peration     | Version:  v2112                                 |  
|   \\  /    A nd           | Website:  www.openfoam.com                      |  
|    \\/     M anipulation  |                                                 |  
\*---------------------------------------------------------------------------*/   
FoamFile                                                                           
{                                                                                  
    version     2.0;                                                               
    format      ascii;                                                             
    class       volScalarField;                                                    
    object      k;                                                                 
}                                                                                  
// * * * * * * * * * * * * * * * * * * * * * * * * * * * * * * * * * * * * * //    
                                                                                   
dimensions             [0 2 -2 0 0 0 0];                                           
                                                                                   
internalField          uniform 5.292971536022099e-10; 
                                                                                   
boundaryField                                                                      
{                                                                                  
   inlet                                                                           
   {                                                                               
       type            fixedValue;                                                 
       value           $internalField;                                             
   }                                                                               
                                                                                   
   outlet                                                                          
   {                                                                               
       type            zeroGradient;                                               
   }                                                                               
                                                                                   
   wall                                                                            
   {                                                                               
       type            fixedValue;                                                 
       value           uniform 1e-20;                                              
   }                                                                               
                                                                                   
   "(top|bottom)"                                                                  
   {                                                                               
       type            zeroGradient;                                               
   }                                                                               
                                                                                   
   #includeEtc "caseDicts/setConstraintTypes"                                      
}                                                                                  
                                                                                   
// ************************************************************************* //    
