/*--------------------------------*- C++ -*----------------------------------*\   
| =========                 |                                                 |    
| \\      /  F ield         | OpenFOAM: The Open Source CFD Toolbox           |  
|  \\    /   O peration     | Version:  v2112                                 |  
|   \\  /    A nd           | Website:  www.openfoam.com                      |  
|    \\/     M anipulation  |                                                 |  
\*---------------------------------------------------------------------------*/   
FoamFile                                                                           
{                                                                                  
    version     2.0;                                                               
    format      ascii;                                                             
    class       volVectorField;                                                    
    object      U;                                                                 
}                                                                                  
// * * * * * * * * * * * * * * * * * * * * * * * * * * * * * * * * * * * * * //    
                                                                                   
mdotInlet      190.24039779734545; 
Uinlet         (39.08250582560623 0 0); 
                                                                                   
dimensions     [0 1 -1 0 0 0 0];                                                   
                                                                                   
internalField  uniform $Uinlet;                                                    
                                                                                   
boundaryField                                                                      
{                                                                                  
   inlet                                                                           
   {                                                                               
       type                flowRateInletVelocity;                                  
       massFlowRate        $mdotInlet;                                             
       rho                 rho;                                                    
   }                                                                               
                                                                                   
   outlet                                                                          
   {                                                                               
       type                inletOutlet;                                            
       inletValue          uniform $Uinlet;                                        
       value               uniform $Uinlet;                                        
   }                                                                               
                                                                                   
   wall                                                                            
   {                                                                               
       type            noSlip;                                                     
   }                                                                               
                                                                                   
   #includeEtc "caseDicts/setConstraintTypes"                                      
}                                                                                  
                                                                                   
// ************************************************************************* //    
